data/ieee_123_clean/ieee123_Curr_Elem.Txt

CIRCUIT ELEMENT CURRENTS

(Currents into element from indicated bus)

Power Delivery Elements

  Bus Phase    Magnitude, A     Angle      (Real)   +j  (Imag)

ELEMENT = "Vsource.SOURCE"
150      1           642.91 /_  156.3 =    -588.65 +j    258.51
150      2           409.83 /_   41.4 =     307.49 +j    270.94
150      3           504.32 /_  -79.8 =     89.159 +j   -496.38
------------
150      0           642.91 /_  -23.7 =     588.65 +j   -258.51
150      0           409.83 /_ -138.6 =    -307.49 +j   -270.94
150      0           504.32 /_  100.2 =    -89.159 +j    496.38

ELEMENT = "Transformer.REG1A"
150      1           642.91 /_  -23.7 =     588.65 +j   -258.51
150      2           409.83 /_ -138.6 =    -307.49 +j   -270.94
150      3           504.32 /_  100.2 =    -89.159 +j    496.38
150      0           194.83 /_  170.2 =       -192 +j    33.068
------------
150R     1           642.91 /_  156.3 =    -588.65 +j    258.51
150R     2           409.83 /_   41.4 =     307.49 +j    270.94
150R     3           504.32 /_  -79.8 =     89.159 +j   -496.38
150R     0           194.83 /_   -9.8 =        192 +j   -33.068

ELEMENT = "Line.L115"
149      1           642.91 /_  -23.7 =     588.65 +j   -258.51
149      2           409.83 /_ -138.6 =    -307.49 +j   -270.94
149      3           504.32 /_  100.2 =    -89.159 +j    496.38
------------
1        1           642.91 /_  156.3 =    -588.65 +j    258.51
1        2           409.83 /_   41.4 =     307.49 +j    270.94
1        3           504.32 /_  -79.8 =     89.158 +j   -496.38

ELEMENT = "Line.L1"
1        2           9.0582 /_ -146.9 =    -7.5893 +j   -4.9452
------------
2        2           9.0584 /_   33.1 =     7.5896 +j     4.945

ELEMENT = "Line.L2"
1        3           45.718 /_   93.0 =    -2.4187 +j    45.654
------------
3        3           45.718 /_  -87.0 =     2.4182 +j   -45.654

ELEMENT = "Line.L3"
1        1           624.63 /_  -23.6 =     572.36 +j   -250.14
1        2           400.86 /_ -138.4 =     -299.9 +j   -265.99
1        3              459 /_  100.9 =    -86.739 +j    450.73
------------
7        1           624.63 /_  156.4 =    -572.36 +j    250.14
7        2           400.87 /_   41.6 =      299.9 +j    265.99
7        3              459 /_  -79.1 =     86.739 +j   -450.73

ELEMENT = "Line.L4"
3        3           18.275 /_   93.0 =   -0.97072 +j    18.249
------------
4        3           18.275 /_  -87.0 =    0.97036 +j   -18.249

ELEMENT = "Line.L5"
3        3           27.443 /_   93.0 =    -1.4475 +j    27.405
------------
5        3           27.444 /_  -87.0 =     1.4469 +j   -27.405

ELEMENT = "Line.L6"
5        3             18.3 /_   93.0 =   -0.96364 +j    18.274
------------
6        3             18.3 /_  -87.0 =    0.96318 +j   -18.274

ELEMENT = "Line.L7"
7        1            615.4 /_  -23.5 =     564.17 +j   -245.84
7        2           400.87 /_ -138.4 =     -299.9 +j   -265.99
7        3              459 /_  100.9 =    -86.739 +j    450.73
------------
8        1            615.4 /_  156.5 =    -564.17 +j    245.84
8        2           400.87 /_   41.6 =      299.9 +j    265.99
8        3              459 /_  -79.1 =     86.738 +j   -450.73

ELEMENT = "Line.L8"
8        2           9.0798 /_ -147.4 =    -7.6465 +j   -4.8962
------------
12       2             9.08 /_   32.6 =     7.6469 +j    4.8959

ELEMENT = "Transformer.REG2A"
9        1           28.038 /_  -28.1 =     24.742 +j   -13.191
9        0           28.038 /_  151.9 =    -24.742 +j    13.191
------------
9R       1           28.038 /_  151.9 =    -24.742 +j    13.191
9R       0           28.038 /_  -28.1 =     24.742 +j   -13.191

ELEMENT = "Line.L9"
8        1           46.689 /_  -28.0 =     41.206 +j   -21.954
------------
9        1           46.689 /_  152.0 =    -41.206 +j    21.955

ELEMENT = "Line.L10"
8        1           568.87 /_  -23.2 =     522.96 +j   -223.89
8        2            391.9 /_ -138.2 =    -292.26 +j   -261.09
8        3              459 /_  100.9 =    -86.738 +j    450.73
------------
13       1           568.87 /_  156.8 =    -522.96 +j    223.89
13       2            391.9 /_   41.8 =     292.26 +j    261.09
13       3              459 /_  -79.1 =     86.737 +j   -450.73

ELEMENT = "Line.L11"
9R       1           28.038 /_  -28.1 =     24.742 +j   -13.191
------------
14       1           28.039 /_  151.9 =    -24.741 +j    13.192

ELEMENT = "Line.L12"
13       3           46.368 /_   92.4 =     -1.945 +j    46.327
------------
34       3           46.368 /_  -87.6 =     1.9447 +j   -46.327

ELEMENT = "Line.L13"
13       1           234.94 /_  -31.8 =     199.59 +j   -123.94
13       2           151.95 /_ -153.3 =    -135.74 +j   -68.295
13       3           154.88 /_   88.8 =     3.3533 +j    154.84
------------
18       1           234.94 /_  148.2 =    -199.59 +j    123.95
18       2           151.95 /_   26.7 =     135.74 +j    68.293
18       3           154.88 /_  -91.2 =    -3.3554 +j   -154.85

ELEMENT = "Line.L14"
14       1           18.695 /_  -28.1 =     16.496 +j   -8.7966
------------
11       1           18.695 /_  151.9 =    -16.496 +j    8.7971

ELEMENT = "Line.L15"
14       1           9.3441 /_  -28.1 =     8.2457 +j   -4.3957
------------
10       1           9.3444 /_  151.9 =    -8.2457 +j    4.3962

ELEMENT = "Line.L16"
15       3           18.559 /_   92.4 =   -0.77435 +j    18.543
------------
16       3            18.56 /_  -87.6 =    0.77367 +j   -18.543

ELEMENT = "Line.L17"
15       3           9.2746 /_   92.4 =   -0.38891 +j    9.2664
------------
17       3           9.2749 /_  -87.6 =    0.38828 +j   -9.2668

ELEMENT = "Line.L18"
18       1           38.016 /_  -28.9 =     33.282 +j   -18.372
------------
19       1           38.016 /_  151.1 =    -33.282 +j    18.372

ELEMENT = "Line.L19"
18       1           57.077 /_  -29.1 =     49.881 +j   -27.743
18       2           18.272 /_ -147.9 =    -15.478 +j   -9.7098
18       3           56.202 /_   92.3 =    -2.2828 +j    56.155
------------
21       1           57.077 /_  150.9 =    -49.881 +j    27.745
21       2           18.272 /_   32.1 =     15.479 +j    9.7093
21       3           56.202 /_  -87.7 =      2.282 +j   -56.156

ELEMENT = "Line.L20"
19       1           19.016 /_  -28.9 =     16.647 +j   -9.1924
------------
20       1           19.017 /_  151.1 =    -16.647 +j     9.193

ELEMENT = "Line.L21"
21       2           18.274 /_ -147.9 =    -15.483 +j   -9.7067
------------
22       2           18.275 /_   32.1 =     15.484 +j    9.7061

ELEMENT = "Line.L22"
21       1           57.077 /_  -29.1 =     49.881 +j   -27.745
21       2        0.0045985 /_  -34.8 =  0.0037741 +j -0.0026272
21       3           56.202 /_   92.3 =     -2.282 +j    56.156
------------
23       1           57.078 /_  150.9 =    -49.881 +j    27.745
23       2        0.0038687 /_  145.2 =  -0.0031752 +j 0.0022102
23       3           56.203 /_  -87.7 =     2.2814 +j   -56.156

ELEMENT = "Line.L23"
23       3           18.723 /_   92.3 =   -0.75863 +j    18.708
------------
24       3           18.724 /_  -87.7 =    0.75765 +j   -18.708

ELEMENT = "Line.L24"
23       1           57.078 /_  -29.1 =     49.881 +j   -27.745
23       2        0.0038687 /_  -34.8 =  0.0031752 +j -0.0022102
23       3           37.479 /_   92.3 =    -1.5227 +j    37.448
------------
25       1           57.078 /_  150.9 =     -49.88 +j    27.746
25       2        0.0030659 /_  145.2 =  -0.0025163 +j 0.0017514
25       3            37.48 /_  -87.7 =      1.522 +j   -37.449

ELEMENT = "Line.L25R"
25       1           19.049 /_  -29.1 =     16.641 +j   -9.2706
25       3           18.745 /_   92.3 =   -0.75952 +j    18.729
------------
25R      1           19.049 /_  150.9 =     -16.64 +j    9.2714
25R      3           18.745 /_  -87.7 =     0.7588 +j    -18.73

ELEMENT = "Line.L25"
25R      1           19.049 /_  -29.1 =      16.64 +j   -9.2714
25R      3           18.745 /_   92.3 =    -0.7588 +j     18.73
------------
26       1           19.049 /_  150.9 =     -16.64 +j    9.2723
26       3           18.746 /_  -87.7 =    0.75808 +j   -18.731

ELEMENT = "Line.L26"
25       1           38.029 /_  -29.1 =      33.24 +j   -18.476
25       2        0.0030659 /_  -34.8 =  0.0025163 +j -0.0017514
25       3           18.735 /_   92.3 =    -0.7625 +j    18.719
------------
28       1            38.03 /_  150.9 =     -33.24 +j    18.476
28       2        0.0024819 /_  145.2 =  -0.0020371 +j 0.0014178
28       3           18.735 /_  -87.7 =    0.76199 +j    -18.72

ELEMENT = "Line.L27"
26       1           19.049 /_  -29.1 =      16.64 +j   -9.2723
26       3       0.00071876 /_ -142.3 =  -0.00056854 +j -0.00043974
------------
27       1           19.049 /_  150.9 =     -16.64 +j     9.273
27       3       1.029E-011 /_   45.0 =  7.276E-012 +j 7.276E-012

ELEMENT = "Line.L28"
26       3           18.746 /_   92.3 =   -0.75751 +j    18.731
------------
31       3           18.747 /_  -87.7 =    0.75711 +j   -18.731

ELEMENT = "Line.L29"
27       1           19.049 /_  -29.1 =      16.64 +j    -9.273
------------
33       1            19.05 /_  150.9 =     -16.64 +j     9.274

ELEMENT = "Line.L30"
28       1           19.016 /_  -29.1 =      16.62 +j   -9.2408
28       2        0.0024819 /_  -34.8 =  0.0020371 +j -0.0014178
28       3           18.735 /_   92.3 =   -0.76199 +j     18.72
------------
29       1           19.016 /_  150.9 =     -16.62 +j    9.2418
29       2         0.001606 /_  145.2 =  -0.0013181 +j 0.00091739
29       3           18.736 /_  -87.7 =    0.76122 +j    -18.72

ELEMENT = "Line.L31"
29       1        0.0018504 /_   83.5 =  0.00020891 +j 0.0018386
29       2         0.001606 /_  -34.8 =  0.0013181 +j -0.00091739
29       3           18.736 /_   92.3 =   -0.76122 +j     18.72
------------
30       1       0.00067288 /_  -96.5 =  -7.5966E-005 +j -0.00066858
30       2       0.00058398 /_  145.2 =  -0.00047933 +j 0.00033358
30       3           18.736 /_  -87.7 =    0.76032 +j   -18.721

ELEMENT = "Line.L32"
30       1       0.00067288 /_   83.5 =  7.5966E-005 +j 0.00066858
30       2       0.00058398 /_  -34.8 =  0.00047933 +j -0.00033358
30       3       0.00063598 /_ -143.6 =  -0.00051196 +j -0.00037731
------------
250      1       7.276E-012 /_  -90.0 =          0 +j -7.276E-012
250      2      9.7956E-012 /_   68.2 =  3.638E-012 +j 9.0949E-012
250      3       1.029E-011 /_ -135.0 =  -7.276E-012 +j -7.276E-012

ELEMENT = "Line.L33"
31       3            9.375 /_   92.3 =   -0.37826 +j    9.3674
------------
32       3           9.3753 /_  -87.7 =    0.37772 +j   -9.3677

ELEMENT = "Line.L34"
34       3           27.834 /_   92.4 =    -1.1634 +j    27.809
------------
15       3           27.834 /_  -87.6 =     1.1633 +j   -27.809

ELEMENT = "Line.L35"
35       1           19.066 /_  -29.0 =     16.679 +j   -9.2383
35       2           18.316 /_ -148.0 =    -15.541 +j    -9.694
------------
36       1           19.067 /_  151.0 =    -16.679 +j    9.2399
36       2           18.317 /_   31.9 =     15.542 +j    9.6929

ELEMENT = "Line.L36"
35       1           111.59 /_  -35.0 =     91.417 +j   -63.988
35       2            106.5 /_ -155.6 =    -96.965 +j   -44.041
35       3           98.853 /_   86.7 =     5.6393 +j    98.692
------------
40       1           111.59 /_  145.0 =    -91.417 +j    63.988
40       2            106.5 /_   24.4 =     96.965 +j     44.04
40       3           98.853 /_  -93.3 =      -5.64 +j   -98.692

ELEMENT = "Line.L37"
36       1           19.067 /_  -29.0 =     16.679 +j   -9.2399
------------
37       1           19.068 /_  151.0 =    -16.679 +j    9.2405

ELEMENT = "Line.L38"
36       2           18.317 /_ -148.1 =    -15.542 +j   -9.6929
------------
38       2           18.317 /_   31.9 =     15.543 +j    9.6926

ELEMENT = "Line.L39"
38       2           9.1603 /_ -148.1 =     -7.773 +j   -4.8469
------------
39       2           9.1606 /_   31.9 =     7.7735 +j    4.8466

ELEMENT = "Line.L40"
40       3           9.3497 /_   92.3 =   -0.37204 +j    9.3423
------------
41       3             9.35 /_  -87.7 =    0.37146 +j   -9.3426

ELEMENT = "Line.L41"
40       1           111.59 /_  -35.0 =     91.417 +j   -63.988
40       2            106.5 /_ -155.6 =    -96.965 +j    -44.04
40       3           89.552 /_   86.2 =      6.012 +j     89.35
------------
42       1           111.59 /_  145.0 =    -91.417 +j    63.989
42       2            106.5 /_   24.4 =     96.966 +j     44.04
42       3           89.552 /_  -93.8 =    -6.0127 +j    -89.35

ELEMENT = "Line.L42"
42       2           18.356 /_ -148.1 =    -15.585 +j   -9.6976
------------
43       2           18.356 /_   31.9 =     15.586 +j    9.6971

ELEMENT = "Line.L43"
42       1            102.1 /_  -35.5 =     83.068 +j   -59.356
42       2           88.331 /_ -157.1 =    -81.381 +j   -34.342
42       3           89.552 /_   86.2 =     6.0127 +j     89.35
------------
44       1            102.1 /_  144.5 =    -83.069 +j    59.357
44       2           88.331 /_   22.9 =     81.382 +j    34.342
44       3           89.552 /_  -93.9 =    -6.0132 +j    -89.35

ELEMENT = "Line.L44"
44       1           19.132 /_  -29.1 =     16.721 +j   -9.2968
------------
45       1           19.132 /_  150.9 =    -16.721 +j    9.2972

ELEMENT = "Line.L45"
44       1           83.114 /_  -37.0 =     66.347 +j    -50.06
44       2           88.331 /_ -157.1 =    -81.382 +j   -34.342
44       3           89.552 /_   86.1 =     6.0132 +j     89.35
------------
47       1           83.115 /_  143.0 =    -66.347 +j    50.061
47       2           88.331 /_   22.9 =     81.383 +j    34.341
47       3           89.553 /_  -93.9 =    -6.0138 +j    -89.35

ELEMENT = "Line.L46"
45       1           9.5679 /_  -29.1 =      8.362 +j   -4.6499
------------
46       1           9.5682 /_  150.9 =     -8.362 +j    4.6505

ELEMENT = "Line.L47"
47       1           36.825 /_  -38.1 =     28.992 +j   -22.706
47       2           35.332 /_ -157.1 =    -32.552 +j   -13.735
47       3           36.063 /_   83.2 =     4.2764 +j    35.809
------------
48       1           36.825 /_  141.9 =    -28.992 +j    22.706
48       2           35.332 /_   22.9 =     32.553 +j    13.735
48       3           36.064 /_  -96.8 =    -4.2769 +j   -35.809

ELEMENT = "Line.L48"
47       1           27.909 /_  -35.0 =     22.862 +j   -16.008
47       2           35.339 /_ -157.1 =    -32.559 +j   -13.739
47       3           35.643 /_   90.6 =   -0.39752 +j    35.641
------------
49       1           27.909 /_  145.0 =    -22.861 +j    16.008
49       2           35.339 /_   22.9 =      32.56 +j    13.738
49       3           35.643 /_  -89.4 =    0.39677 +j   -35.641

ELEMENT = "Line.L49"
49       1           9.5737 /_  -29.1 =     8.3653 +j   -4.6558
49       2        0.0031427 /_   -9.7 =  0.0030974 +j -0.00053206
49       3           18.756 /_   92.1 =   -0.70161 +j    18.743
------------
50       1           9.5738 /_  150.9 =    -8.3651 +j    4.6564
50       2        0.0023571 /_  170.3 =  -0.0023231 +j 0.00039908
50       3           18.756 /_  -87.9 =    0.70087 +j   -18.743

ELEMENT = "Line.L50"
50       1           9.5738 /_  -29.1 =     8.3651 +j   -4.6564
50       2        0.0023571 /_   -9.7 =  0.0023231 +j -0.00039908
50       3        0.0023827 /_ -159.8 =  -0.0022361 +j -0.00082298
------------
51       1           9.5739 /_  150.9 =    -8.3649 +j     4.657
51       2        0.0015714 /_  170.3 =  -0.0015487 +j 0.00026607
51       3        0.0015885 /_   20.2 =  0.0014907 +j 0.00054866

ELEMENT = "Line.L51"
51       1        0.0012033 /_   69.6 =  0.00042001 +j 0.0011276
51       2        0.0015714 /_   -9.7 =  0.0015487 +j -0.00026607
51       3        0.0015885 /_ -159.8 =  -0.0014907 +j -0.00054866
------------
151      1      1.0168E-012 /_  116.6 =  -4.5475E-013 +j 9.0949E-013
151      2      6.6212E-012 /_  164.1 =  -6.3665E-012 +j 1.819E-012
151      3                0 /_    0.0 =          0 +j         0

ELEMENT = "Line.L52"
52       1           319.96 /_  -16.5 =      306.8 +j   -90.829
52       2           248.34 /_ -129.1 =    -156.52 +j    -192.8
52       3           264.67 /_  109.5 =    -88.145 +j    249.56
------------
53       1           319.96 /_  163.5 =     -306.8 +j     90.83
53       2           248.34 /_   50.9 =     156.52 +j     192.8
53       3           264.67 /_  -70.5 =     88.144 +j   -249.56

ELEMENT = "Line.L53"
53       1           301.47 /_  -15.7 =      290.2 +j   -81.635
53       2           248.34 /_ -129.1 =    -156.52 +j    -192.8
53       3           264.67 /_  109.5 =    -88.144 +j    249.56
------------
54       1           301.47 /_  164.3 =     -290.2 +j    81.635
54       2           248.34 /_   50.9 =     156.52 +j     192.8
54       3           264.67 /_  -70.5 =     88.144 +j   -249.56

ELEMENT = "Line.L54"
54       1           9.5048 /_  -29.1 =     8.3062 +j   -4.6204
54       2           9.1149 /_ -148.1 =    -7.7383 +j   -4.8167
54       3        0.0015903 /_ -155.4 =  -0.0014465 +j -0.00066089
------------
55       1           9.5053 /_  150.9 =    -8.3063 +j    4.6212
55       2           9.1153 /_   31.9 =      7.739 +j    4.8161
55       3       0.00079516 /_   24.6 =  0.00072324 +j 0.00033045

ELEMENT = "Line.L55"
54       1           292.23 /_  -15.3 =      281.9 +j   -77.015
54       2           239.74 /_ -128.4 =    -148.78 +j   -187.98
54       3           264.67 /_  109.5 =    -88.142 +j    249.56
------------
57       1           292.23 /_  164.7 =     -281.9 +j    77.016
57       2           239.74 /_   51.6 =     148.79 +j    187.98
57       3           264.67 /_  -70.5 =     88.141 +j   -249.56

ELEMENT = "Line.L56"
55       1        0.0008639 /_   96.1 =  -9.2163E-005 +j 0.00085897
55       2           9.1153 /_ -148.1 =     -7.739 +j   -4.8161
55       3       0.00079516 /_ -155.4 =  -0.00072324 +j -0.00033045
------------
56       1      6.5585E-012 /_ -146.3 =  -5.457E-012 +j -3.638E-012
56       2           9.1156 /_   31.9 =     7.7398 +j    4.8156
56       3       7.276E-012 /_    0.0 =  7.276E-012 +j         0

ELEMENT = "Line.L57"
57       2           18.288 /_ -148.3 =    -15.564 +j    -9.604
------------
58       2           18.289 /_   31.7 =     15.564 +j    9.6037

ELEMENT = "Line.L58"
57       1           292.23 /_  -15.3 =      281.9 +j   -77.016
57       2           222.63 /_ -126.8 =    -133.22 +j   -178.38
57       3           264.67 /_  109.5 =    -88.141 +j    249.56
------------
60       1           292.23 /_  164.7 =     -281.9 +j    77.018
60       2           222.64 /_   53.2 =     133.22 +j    178.38
60       3           264.67 /_  -70.5 =     88.139 +j   -249.56

ELEMENT = "Line.L59"
58       2           9.1456 /_ -148.3 =    -7.7833 +j   -4.8023
------------
59       2           9.1458 /_   31.7 =     7.7837 +j    4.8021

ELEMENT = "Line.L61S"
61       1      6.8694E-007 /_   -3.5 =  6.8565E-007 +j -4.2103E-008
61       2      1.7424E-006 /_ -122.1 =  -9.2697E-007 +j -1.4753E-006
61       3      5.8965E-008 /_  -62.0 =  2.7661E-008 +j -5.2074E-008
------------
62       1        0.0018276 /_   91.6 =  -5.0792E-005 +j 0.0018269
62       2        0.0017536 /_  -39.9 =  0.0013447 +j -0.0011256
62       3        0.0015724 /_ -148.9 =  -0.001346 +j -0.00081299

ELEMENT = "Line.L61"
60       1           46.925 /_  -35.3 =     38.276 +j   -27.146
60       2           51.596 /_ -150.6 =    -44.972 +j   -25.291
60       3           81.025 /_   89.1 =     1.2951 +j    81.014
------------
62       1           46.929 /_  144.6 =    -38.275 +j    27.154
62       2           51.599 /_   29.3 =     44.979 +j    25.286
62       3           81.028 /_  -90.9 =    -1.3018 +j   -81.018

ELEMENT = "Line.L62"
62       1            46.93 /_  -35.4 =     38.275 +j   -27.155
62       2             51.6 /_ -150.7 =     -44.98 +j   -25.285
62       3           62.212 /_   88.4 =     1.7641 +j    62.187
------------
63       1           46.932 /_  144.6 =    -38.275 +j    27.161
63       2           51.603 /_   29.3 =     44.985 +j    25.282
63       3           62.214 /_  -91.6 =    -1.7687 +j   -62.189

ELEMENT = "Line.L63"
63       1           27.809 /_  -39.0 =     21.606 +j   -17.507
63       2           51.603 /_ -150.7 =    -44.985 +j   -25.282
63       3           62.214 /_   88.4 =     1.7687 +j    62.189
------------
64       1           27.815 /_  141.0 =    -21.606 +j    17.517
64       2           51.608 /_   29.3 =     44.994 +j    25.277
64       3            62.22 /_  -91.6 =    -1.7781 +j   -62.194

ELEMENT = "Line.L64"
64       1           27.815 /_  -39.0 =     21.606 +j   -17.517
64       2           17.707 /_ -157.5 =    -16.363 +j   -6.7661
64       3            62.22 /_   88.4 =     1.7781 +j    62.194
------------
65       1           27.822 /_  140.9 =    -21.605 +j     17.53
65       2           17.715 /_   22.4 =     16.374 +j    6.7591
65       3           62.226 /_  -91.6 =    -1.7893 +j     -62.2

ELEMENT = "Line.L65"
65       1        0.0095945 /_   86.5 =  0.00059346 +j 0.0095761
65       2         0.010045 /_  -32.0 =  0.0085141 +j -0.0053295
65       3           35.136 /_   93.0 =    -1.8148 +j    35.089
------------
66       1      6.1011E-012 /_   63.4 =  2.7285E-012 +j 5.457E-012
66       2      4.2901E-012 /_  122.0 =  -2.2737E-012 +j 3.638E-012
66       3            35.14 /_  -87.1 =     1.8062 +j   -35.093

ELEMENT = "Line.L66"
67       1           58.248 /_  -30.7 =     50.088 +j   -29.731
------------
68       1           58.248 /_  149.3 =    -50.088 +j    29.732

ELEMENT = "Line.L67"
67       1           113.79 /_   15.2 =     109.81 +j    29.831
67       2           131.27 /_ -108.1 =    -40.761 +j   -124.78
67       3              135 /_  130.8 =      -88.2 +j     102.2
------------
72       1           113.79 /_ -164.8 =    -109.81 +j    -29.83
72       2           131.27 /_   71.9 =     40.762 +j    124.78
72       3              135 /_  -49.2 =     88.199 +j    -102.2

ELEMENT = "Line.L68"
67       1            87.89 /_  -30.9 =     75.403 +j   -45.155
67       2           55.287 /_ -149.2 =    -47.493 +j   -28.305
67       3           66.355 /_   91.1 =    -1.2316 +j    66.344
------------
97       1            87.89 /_  149.1 =    -75.403 +j    45.156
97       2           55.288 /_   30.8 =     47.493 +j    28.304
97       3           66.355 /_  -88.9 =     1.2308 +j   -66.344

ELEMENT = "Line.L69"
68       1           48.565 /_  -30.7 =     41.758 +j   -24.796
------------
69       1           48.565 /_  149.3 =    -41.758 +j    24.797

ELEMENT = "Line.L70"
69       1           29.161 /_  -30.7 =      25.07 +j   -14.896
------------
70       1           29.162 /_  149.3 =     -25.07 +j    14.896

ELEMENT = "Line.L71"
70       1           19.446 /_  -30.7 =     16.717 +j   -9.9347
------------
71       1           19.446 /_  149.3 =    -16.717 +j    9.9353

ELEMENT = "Line.L72"
72       3           56.881 /_   91.0 =   -0.95045 +j    56.873
------------
73       3           56.881 /_  -89.0 =    0.94996 +j   -56.873

ELEMENT = "Line.L73"
72       1           113.79 /_   15.2 =     109.81 +j     29.83
72       2           131.27 /_ -108.1 =    -40.762 +j   -124.78
72       3           98.322 /_  152.5 =    -87.249 +j     45.33
------------
76       1           113.79 /_ -164.8 =    -109.81 +j    -29.83
76       2           131.27 /_   71.9 =     40.762 +j    124.78
76       3           98.322 /_  -27.5 =     87.248 +j    -45.33

ELEMENT = "Line.L74"
73       3           37.952 /_   90.9 =   -0.62371 +j    37.947
------------
74       3           37.952 /_  -89.1 =    0.62308 +j   -37.947

ELEMENT = "Line.L75"
74       3           18.986 /_   90.9 =   -0.30853 +j    18.984
------------
75       3           18.987 /_  -89.1 =    0.30782 +j   -18.984

ELEMENT = "Line.L76"
76       1           72.229 /_   57.0 =     39.339 +j    60.577
76       2           75.887 /_  -58.7 =     39.425 +j   -64.842
76       3           73.738 /_  180.0 =    -73.738 +j  0.027253
------------
77       1           72.228 /_ -123.0 =    -39.338 +j   -60.576
77       2           75.886 /_  121.3 =    -39.424 +j    64.842
77       3           73.737 /_    0.0 =     73.737 +j -0.027953

ELEMENT = "Line.L77"
76       1           34.795 /_    0.1 =     34.795 +j  0.060157
76       2            58.36 /_ -130.9 =    -38.184 +j   -44.135
76       3           20.778 /_  153.3 =    -18.556 +j    9.3484
------------
86       1           34.795 /_ -179.9 =    -34.795 +j -0.058217
86       2           58.361 /_   49.1 =     38.186 +j    44.134
86       3           20.776 /_  -26.7 =     18.554 +j   -9.3493

ELEMENT = "Line.L78"
77       1           72.228 /_   57.0 =     39.338 +j    60.576
77       2           78.309 /_  -45.1 =     55.258 +j   -55.487
77       3           73.737 /_  180.0 =    -73.737 +j  0.027953
------------
78       1           72.228 /_ -123.0 =    -39.338 +j   -60.575
78       2           78.308 /_  134.9 =    -55.258 +j    55.486
78       3           73.737 /_    0.0 =     73.737 +j -0.028128

ELEMENT = "Line.L79"
78       1           19.321 /_  -30.9 =     16.583 +j   -9.9138
78       2       0.00065202 /_  -29.2 =  0.00056915 +j -0.00031812
78       3       0.00076084 /_ -148.9 =  -0.00065125 +j -0.00039339
------------
79       1           19.321 /_  149.1 =    -16.583 +j    9.9145
79       2      5.1449E-012 /_ -135.0 =  -3.638E-012 +j -3.638E-012
79       3      1.4552E-011 /_  -90.0 =          0 +j -1.4552E-011

ELEMENT = "Line.L80"
78       1           74.071 /_   72.1 =     22.755 +j    70.489
78       2           78.308 /_  -45.1 =     55.258 +j   -55.486
78       3           73.736 /_  180.0 =    -73.736 +j  0.028521
------------
80       1            74.07 /_ -107.9 =    -22.755 +j   -70.488
80       2           78.306 /_  134.9 =    -55.256 +j    55.485
80       3           73.735 /_    0.0 =     73.735 +j -0.029351

ELEMENT = "Line.L81"
80       1            74.07 /_   72.1 =     22.755 +j    70.488
80       2           84.751 /_  -33.0 =     71.071 +j   -46.171
80       3           73.735 /_  180.0 =    -73.735 +j  0.029351
------------
81       1           74.069 /_ -107.9 =    -22.755 +j   -70.487
81       2           84.751 /_  147.0 =     -71.07 +j    46.171
81       3           73.734 /_    0.0 =     73.734 +j -0.029656

ELEMENT = "Line.L82"
81       1           74.069 /_   72.1 =     22.755 +j    70.487
81       2           84.751 /_  -33.0 =      71.07 +j   -46.171
81       3           78.674 /_ -158.9 =    -73.397 +j   -28.329
------------
82       1           74.068 /_ -107.9 =    -22.755 +j   -70.486
82       2            84.75 /_  147.0 =     -71.07 +j     46.17
82       3           78.673 /_   21.1 =     73.396 +j    28.328

ELEMENT = "Line.L83"
81       3            28.36 /_   90.7 =   -0.33741 +j    28.358
------------
84       3           28.361 /_  -89.3 =     0.3362 +j   -28.359

ELEMENT = "Line.L84"
82       1           80.641 /_   85.6 =     6.2536 +j    80.398
82       2            84.75 /_  -33.0 =      71.07 +j    -46.17
82       3           78.673 /_ -158.9 =    -73.396 +j   -28.328
------------
83       1            80.64 /_  -94.4 =    -6.2535 +j   -80.397
83       2           84.749 /_  147.0 =    -71.069 +j     46.17
83       3           78.672 /_   21.1 =     73.395 +j    28.328

ELEMENT = "Line.L85"
84       3           18.915 /_   90.7 =   -0.22175 +j    18.914
------------
85       3           18.916 /_  -89.3 =    0.22089 +j   -18.914

ELEMENT = "Line.L86"
86       1           34.795 /_    0.1 =     34.795 +j  0.058217
86       2            49.71 /_ -127.5 =    -30.239 +j   -39.455
86       3           20.776 /_  153.3 =    -18.554 +j    9.3493
------------
87       1           34.795 /_ -179.9 =    -34.795 +j -0.056853
87       2            49.71 /_   52.5 =      30.24 +j    39.455
87       3           20.776 /_  -26.7 =     18.553 +j   -9.3501

ELEMENT = "Line.L87"
87       1           20.709 /_   28.9 =     18.131 +j    10.006
------------
88       1           20.709 /_ -151.1 =    -18.131 +j   -10.006

ELEMENT = "Line.L88"
87       1           19.408 /_  -30.8 =     16.663 +j   -9.9495
87       2           33.345 /_ -115.4 =    -14.318 +j   -30.115
87       3           20.776 /_  153.3 =    -18.553 +j    9.3501
------------
89       1           19.408 /_  149.2 =    -16.663 +j    9.9503
89       2           33.345 /_   64.6 =     14.319 +j    30.114
89       3           20.775 /_  -26.7 =     18.552 +j   -9.3506

ELEMENT = "Line.L89"
89       2           20.853 /_  -85.5 =     1.6359 +j   -20.789
------------
90       2           20.853 /_   94.5 =    -1.6355 +j    20.789

ELEMENT = "Line.L90"
89       1           19.408 /_  -30.8 =     16.663 +j   -9.9503
89       2            18.48 /_ -149.7 =    -15.955 +j   -9.3254
89       3           20.775 /_  153.3 =    -18.552 +j    9.3506
------------
91       1           19.408 /_  149.2 =    -16.663 +j     9.951
91       2           18.481 /_   30.3 =     15.956 +j    9.3251
91       3           20.775 /_  -26.8 =     18.551 +j   -9.3509

ELEMENT = "Line.L91"
91       3           20.774 /_  153.2 =     -18.55 +j    9.3519
------------
92       3           20.773 /_  -26.8 =     18.549 +j   -9.3521

ELEMENT = "Line.L92"
91       1           19.408 /_  -30.8 =     16.663 +j    -9.951
91       2           18.481 /_ -149.7 =    -15.956 +j   -9.3251
91       3        0.0017748 /_ -148.9 =  -0.0015193 +j -0.00091755
------------
93       1           19.408 /_  149.2 =    -16.663 +j    9.9517
93       2           18.481 /_   30.3 =     15.956 +j    9.3248
93       3        0.0010142 /_   31.1 =  0.00086816 +j 0.00052432

ELEMENT = "Line.L93"
93       1           19.409 /_  -30.9 =     16.662 +j   -9.9526
------------
94       1           19.409 /_  149.1 =    -16.662 +j    9.9531

ELEMENT = "Line.L94"
93       1       0.00092876 /_   77.9 =  0.00019427 +j 0.00090822
...