data/ieee_123_clean/ieee123_VLN_Node.Txt

LINE-GROUND and LINE-LINE VOLTAGES BY BUS & NODE

Bus  Node    VLN (kV)   Angle      pu     Base kV    Node-Node   VLL (kV)  Angle      pu

150  1       2.4738 /_    0.0      1.03     4.160        1-2     4.2848 /_   30.0      1.03
   - 2       2.4738 /_ -120.0      1.03     4.160        2-3     4.2848 /_  -90.0      1.03
   - 3       2.4738 /_  120.0      1.03     4.160        3-1     4.2848 /_  150.0      1.03
150R 1       2.4738 /_    0.0      1.03     4.160        1-2     4.2848 /_   30.0      1.03
   - 2       2.4738 /_ -120.0      1.03     4.160        2-3     4.2848 /_  -90.0      1.03
   - 3       2.4738 /_  120.0      1.03     4.160        3-1     4.2848 /_  150.0      1.03
149  1       2.4738 /_    0.0      1.03     4.160        1-2     4.2848 /_   30.0      1.03
   - 2       2.4738 /_ -120.0      1.03     4.160        2-3     4.2848 /_  -90.0      1.03
   - 3       2.4738 /_  120.0      1.03     4.160        3-1     4.2848 /_  150.0      1.03
1 .. 1       2.4413 /_   -0.6    1.0165     4.160        1-2     4.2461 /_   29.7    1.0207
   - 2        2.469 /_ -120.3     1.028     4.160        2-3     4.2621 /_  -90.5    1.0245
   - 3       2.4523 /_  119.6     1.021     4.160        3-1     4.2442 /_  149.4    1.0202
2 .. 2       2.4685 /_ -120.3    1.0278     4.160
3 .. 3       2.4484 /_  119.6    1.0194     4.160
7 .. 1       2.4171 /_   -1.1    1.0064     4.160        1-2      4.218 /_   29.5     1.014
   - 2       2.4657 /_ -120.6    1.0266     4.160        2-3     4.2462 /_  -90.8    1.0207
   - 3       2.4383 /_  119.4    1.0152     4.160        3-1     4.2163 /_  149.0    1.0135
4 .. 3       2.4472 /_  119.6    1.0189     4.160
5 .. 3       2.4454 /_  119.6    1.0182     4.160
6 .. 3       2.4438 /_  119.6    1.0175     4.160
8 .. 1       2.4014 /_   -1.4   0.99983     4.160        1-2     4.1996 /_   29.3    1.0095
   - 2       2.4633 /_ -120.8    1.0256     4.160        2-3     4.2357 /_  -91.0    1.0182
   - 3       2.4291 /_  119.3    1.0114     4.160        3-1     4.1979 /_  148.7    1.0091
12 . 2       2.4626 /_ -120.8    1.0253     4.160
9 .. 1       2.3978 /_   -1.5   0.99834     4.160
9R . 1       2.3978 /_   -1.5   0.99834     4.160
13 . 1       2.3803 /_   -1.9   0.99107     4.160        1-2     4.1739 /_   29.1    1.0033
   - 2       2.4589 /_ -121.1    1.0238     4.160        2-3       4.22 /_  -91.3    1.0144
   - 3       2.4153 /_  119.0    1.0056     4.160        3-1     4.1712 /_  148.3    1.0027
14 . 1       2.3937 /_   -1.5   0.99666     4.160
34 . 3       2.4129 /_  119.0    1.0046     4.160
18 . 1        2.357 /_   -2.3   0.98136     4.160        1-2      4.143 /_   28.8    0.9959
   - 2       2.4503 /_ -121.3    1.0202     4.160        2-3     4.1925 /_  -91.6    1.0078
   - 3       2.3976 /_  118.9   0.99825     4.160        3-1     4.1433 /_  148.0   0.99599
11 . 1       2.3922 /_   -1.5     0.996     4.160
10 . 1        2.393 /_   -1.5   0.99633     4.160
15 . 3        2.412 /_  119.0    1.0042     4.160
16 . 3       2.4096 /_  119.0    1.0033     4.160
17 . 3       2.4109 /_  119.0    1.0038     4.160
19 . 1       2.3538 /_   -2.3   0.98001     4.160
21 . 1       2.3556 /_   -2.4   0.98079     4.160        1-2     4.1408 /_   28.8   0.99538
   - 2       2.4505 /_ -121.3    1.0203     4.160        2-3     4.1907 /_  -91.6    1.0074
   - 3       2.3947 /_  118.9   0.99706     4.160        3-1     4.1403 /_  148.0   0.99527
20 . 1       2.3517 /_   -2.3   0.97914     4.160
22 . 2       2.4472 /_ -121.4    1.0189     4.160
23 . 1       2.3546 /_   -2.4   0.98036     4.160        1-2     4.1392 /_   28.8   0.99499
   - 2       2.4514 /_ -121.3    1.0207     4.160        2-3     4.1899 /_  -91.6    1.0072
   - 3        2.392 /_  118.9   0.99592     4.160        3-1     4.1378 /_  148.0   0.99467
24 . 3       2.3885 /_  118.9   0.99446     4.160
25 . 1        2.353 /_   -2.5   0.97968     4.160        1-2     4.1373 /_   28.8   0.99455
   - 2       2.4525 /_ -121.3    1.0211     4.160        2-3     4.1891 /_  -91.6     1.007
   - 3       2.3898 /_  118.9   0.99503     4.160        3-1     4.1357 /_  148.0   0.99416
25R  1       2.3523 /_   -2.5   0.97941     4.160
   - 3       2.3886 /_  118.9   0.99453     4.160        3-1     4.1345 /_  148.0   0.99386
26 . 1       2.3517 /_   -2.5   0.97915     4.160
   - 3       2.3874 /_  118.9   0.99403     4.160        3-1     4.1332 /_  147.9   0.99356
28 . 1       2.3521 /_   -2.5    0.9793     4.160        1-2     4.1364 /_   28.8   0.99432
   - 2       2.4531 /_ -121.3    1.0214     4.160        2-3     4.1889 /_  -91.6    1.0069
   - 3        2.389 /_  118.9   0.99469     4.160        3-1     4.1349 /_  148.0   0.99396
27 . 1       2.3508 /_   -2.5   0.97878     4.160
   - 3       2.3874 /_  118.9     0.994     4.160        3-1     4.1329 /_  147.9    0.9935
31 . 3        2.386 /_  118.9   0.99344     4.160
33 . 1       2.3476 /_   -2.6   0.97744     4.160
29 . 1       2.3516 /_   -2.5   0.97913     4.160        1-2     4.1358 /_   28.8   0.99417
   - 2       2.4534 /_ -121.3    1.0215     4.160        2-3     4.1885 /_  -91.6    1.0069
   - 3       2.3879 /_  118.9   0.99423     4.160        3-1     4.1339 /_  148.0   0.99372
30 . 1       2.3523 /_   -2.5   0.97939     4.160        1-2     4.1359 /_   28.8    0.9942
   - 2       2.4533 /_ -121.3    1.0215     4.160        2-3     4.1882 /_  -91.7    1.0068
   - 3       2.3868 /_  118.9   0.99377     4.160        3-1     4.1331 /_  147.9   0.99352
250  1       2.3523 /_   -2.5   0.97939     4.160        1-2     4.1359 /_   28.8    0.9942
   - 2       2.4533 /_ -121.3    1.0215     4.160        2-3     4.1882 /_  -91.7    1.0068
   - 3       2.3868 /_  118.9   0.99377     4.160        3-1     4.1331 /_  147.9   0.99352
32 . 3       2.3851 /_  118.9   0.99304     4.160
35 . 1       2.3497 /_   -2.4    0.9783     4.160        1-2      4.132 /_   28.8   0.99327
   - 2       2.4446 /_ -121.4    1.0178     4.160        2-3     4.1846 /_  -91.6    1.0059
   - 3       2.3951 /_  118.9   0.99723     4.160        3-1     4.1354 /_  147.9   0.99408
36 . 1       2.3474 /_   -2.4   0.97734     4.160        1-2     4.1296 /_   28.7    0.9927
   - 2       2.4435 /_ -121.5    1.0174     4.160
40 . 1       2.3459 /_   -2.4   0.97674     4.160        1-2     4.1267 /_   28.7   0.99198
   - 2        2.442 /_ -121.5    1.0167     4.160        2-3     4.1801 /_  -91.7    1.0048
   - 3       2.3925 /_  118.9   0.99615     4.160        3-1     4.1298 /_  147.9   0.99274
37 . 1       2.3454 /_   -2.4   0.97653     4.160
38 . 2        2.442 /_ -121.5    1.0167     4.160
39 . 2        2.441 /_ -121.5    1.0163     4.160
41 . 3       2.3915 /_  118.8   0.99572     4.160
42 . 1        2.342 /_   -2.5    0.9751     4.160        1-2     4.1213 /_   28.7    0.9907
   - 2       2.4394 /_ -121.5    1.0157     4.160        2-3     4.1757 /_  -91.7    1.0038
   - 3       2.3903 /_  118.8   0.99524     4.160        3-1     4.1245 /_  147.8   0.99147
43 . 2       2.4363 /_ -121.5    1.0144     4.160
44 . 1       2.3393 /_   -2.5   0.97397     4.160        1-2     4.1175 /_   28.7   0.98978
   - 2       2.4378 /_ -121.5     1.015     4.160        2-3     4.1727 /_  -91.7     1.003
   - 3       2.3883 /_  118.8    0.9944     4.160        3-1     4.1204 /_  147.8   0.99049
45 . 1        2.338 /_   -2.5   0.97343     4.160
47 . 1       2.3367 /_   -2.5    0.9729     4.160        1-2     4.1133 /_   28.6   0.98877
   - 2       2.4354 /_ -121.6     1.014     4.160        2-3     4.1687 /_  -91.8    1.0021
   - 3       2.3859 /_  118.7   0.99338     4.160        3-1     4.1156 /_  147.8   0.98932
46 . 1        2.337 /_   -2.5   0.97303     4.160
48 . 1        2.336 /_   -2.5   0.97261     4.160        1-2     4.1121 /_   28.6   0.98848
   - 2       2.4347 /_ -121.6    1.0137     4.160        2-3     4.1678 /_  -91.8    1.0019
   - 3       2.3853 /_  118.7   0.99315     4.160        3-1     4.1145 /_  147.8   0.98906
49 . 1        2.336 /_   -2.5   0.97262     4.160        1-2     4.1116 /_   28.6   0.98835
   - 2        2.434 /_ -121.6    1.0134     4.160        2-3     4.1672 /_  -91.8    1.0017
   - 3       2.3851 /_  118.7   0.99306     4.160        3-1      4.114 /_  147.8   0.98894
50 . 1        2.336 /_   -2.5   0.97259     4.160        1-2     4.1111 /_   28.6   0.98826
   - 2       2.4341 /_ -121.6    1.0135     4.160        2-3      4.167 /_  -91.8    1.0017
   - 3       2.3843 /_  118.7   0.99271     4.160        3-1     4.1132 /_  147.7   0.98875
51 . 1       2.3356 /_   -2.5   0.97243     4.160        1-2     4.1108 /_   28.6   0.98818
   - 2       2.4343 /_ -121.6    1.0135     4.160        2-3      4.167 /_  -91.8    1.0017
   - 3       2.3842 /_  118.7    0.9927     4.160        3-1     4.1131 /_  147.7   0.98872
151  1       2.3356 /_   -2.5   0.97243     4.160        1-2     4.1108 /_   28.6   0.98818
   - 2       2.4343 /_ -121.6    1.0135     4.160        2-3      4.167 /_  -91.8    1.0017
   - 3       2.3842 /_  118.7    0.9927     4.160        3-1     4.1131 /_  147.7   0.98872
52 . 1       2.3643 /_   -2.2   0.98441     4.160        1-2     4.1556 /_   28.9   0.99893
   - 2       2.4564 /_ -121.3    1.0228     4.160        2-3       4.21 /_  -91.6     1.012
   - 3       2.4071 /_  118.8    1.0022     4.160        3-1     4.1533 /_  148.0    0.9984
53 . 1        2.357 /_   -2.4   0.98136     4.160        1-2     4.1469 /_   28.8   0.99684
   - 2       2.4548 /_ -121.4    1.0221     4.160        2-3      4.205 /_  -91.7    1.0108
   - 3       2.4031 /_  118.7    1.0006     4.160        3-1     4.1446 /_  147.8   0.99631
54 . 1       2.3528 /_   -2.5   0.97963     4.160        1-2     4.1417 /_   28.7   0.99561
   - 2       2.4536 /_ -121.5    1.0216     4.160        2-3     4.2018 /_  -91.8    1.0101
   - 3       2.4007 /_  118.6   0.99954     4.160        3-1     4.1394 /_  147.7   0.99504
55 . 1       2.3523 /_   -2.5   0.97941     4.160        1-2     4.1413 /_   28.7    0.9955
   - 2       2.4534 /_ -121.5    1.0215     4.160        2-3     4.2015 /_  -91.8      1.01
   - 3       2.4008 /_  118.6   0.99961     4.160        3-1     4.1392 /_  147.7     0.995
57 . 1        2.344 /_   -2.8   0.97594     4.160        1-2     4.1268 /_   28.4   0.99203
   - 2       2.4472 /_ -121.7    1.0189     4.160        2-3     4.1902 /_  -92.0    1.0073
   - 3       2.3942 /_  118.4   0.99685     4.160        3-1     4.1282 /_  147.4   0.99236
56 . 1       2.3523 /_   -2.5   0.97938     4.160        1-2     4.1412 /_   28.7   0.99547
   - 2        2.453 /_ -121.5    1.0213     4.160        2-3     4.2012 /_  -91.8    1.0099
   - 3        2.401 /_  118.6    0.9997     4.160        3-1     4.1392 /_  147.7   0.99499
58 . 2       2.4457 /_ -121.8    1.0183     4.160
60 . 1       2.3255 /_   -3.5   0.96825     4.160        1-2     4.0958 /_   28.0   0.98456
   - 2        2.436 /_ -122.2    1.0143     4.160        2-3     4.1673 /_  -92.5    1.0018
   - 3       2.3791 /_  118.0   0.99056     4.160        3-1     4.1044 /_  146.9   0.98663
59 . 2       2.4449 /_ -121.8     1.018     4.160
61 . 1       2.3234 /_   -3.5   0.96736     4.160        1-2     4.0912 /_   28.0   0.98347
   - 2       2.4336 /_ -122.1    1.0132     4.160        2-3     4.1614 /_  -92.5    1.0003
   - 3       2.3741 /_  118.0   0.98846     4.160        3-1     4.0982 /_  146.9   0.98515
62 . 1       2.3234 /_   -3.5   0.96736     4.160        1-2     4.0912 /_   28.0   0.98347
   - 2       2.4336 /_ -122.1    1.0132     4.160        2-3     4.1614 /_  -92.5    1.0003
   - 3       2.3741 /_  118.0   0.98846     4.160        3-1     4.0982 /_  146.9   0.98515
63 . 1       2.3217 /_   -3.5   0.96667     4.160        1-2     4.0881 /_   28.0   0.98271
   - 2       2.4317 /_ -122.1    1.0125     4.160        2-3     4.1578 /_  -92.5   0.99948
   - 3       2.3716 /_  118.0   0.98744     4.160        3-1     4.0945 /_  146.9   0.98427
64 . 1       2.3206 /_   -3.5   0.96619     4.160        1-2      4.083 /_   28.0   0.98148
   - 2       2.4276 /_ -122.1    1.0108     4.160        2-3     4.1507 /_  -92.5   0.99776
   - 3       2.3663 /_  118.0   0.98522     4.160        3-1     4.0885 /_  146.9    0.9828
65 . 1       2.3185 /_   -3.5   0.96531     4.160        1-2     4.0794 /_   28.0   0.98063
   - 2       2.4272 /_ -122.1    1.0106     4.160        2-3     4.1446 /_  -92.5    0.9963
   - 3        2.359 /_  118.0   0.98217     4.160        3-1     4.0811 /_  146.9   0.98102
66 . 1       2.3191 /_   -3.6   0.96556     4.160        1-2     4.0793 /_   28.0    0.9806
   - 2       2.4278 /_ -122.0    1.0108     4.160        2-3     4.1426 /_  -92.5   0.99581
   - 3       2.3553 /_  118.0   0.98064     4.160        3-1     4.0788 /_  147.0   0.98048
67 . 1       2.3133 /_   -4.0   0.96314     4.160        1-2     4.0789 /_   27.6    0.9805
   - 2       2.4321 /_ -122.6    1.0126     4.160        2-3     4.1518 /_  -92.9   0.99802
   - 3       2.3684 /_  117.7   0.98609     4.160        3-1     4.0899 /_  146.5   0.98316
68 . 1       2.3093 /_   -4.1    0.9615     4.160
72 . 1       2.3134 /_   -4.1   0.96318     4.160        1-2     4.0775 /_   27.4   0.98018
   - 2         2.43 /_ -122.7    1.0118     4.160        2-3     4.1496 /_  -93.0    0.9975
   - 3       2.3678 /_  117.6   0.98585     4.160        3-1     4.0891 /_  146.4   0.98296
97 . 1       2.3107 /_   -4.1   0.96206     4.160        1-2     4.0749 /_   27.5   0.97954
   - 2       2.4309 /_ -122.6    1.0121     4.160        2-3     4.1491 /_  -92.9   0.99737
   - 3       2.3666 /_  117.7   0.98534     4.160        3-1     4.0869 /_  146.4   0.98243
69 . 1       2.3048 /_   -4.1   0.95961     4.160
70 . 1       2.3015 /_   -4.1   0.95827     4.160
71 . 1       2.2997 /_   -4.2   0.95751     4.160
73 . 3       2.3625 /_  117.6   0.98364     4.160
76 . 1       2.3125 /_   -4.2   0.96282     4.160        1-2     4.0767 /_   27.3   0.97998
   - 2       2.4289 /_ -122.8    1.0113     4.160        2-3     4.1486 /_  -93.0   0.99726
   - 3       2.3693 /_  117.5   0.98648     4.160        3-1       4.09 /_  146.3   0.98317
74 . 3        2.358 /_  117.5   0.98177     4.160
75 . 3       2.3554 /_  117.5   0.98069     4.160
77 . 1       2.3148 /_   -4.3   0.96379     4.160        1-2     4.0814 /_   27.3    0.9811
   - 2       2.4316 /_ -122.9    1.0124     4.160        2-3     4.1525 /_  -93.1   0.99819
   - 3       2.3712 /_  117.5   0.98728     4.160        3-1     4.0935 /_  146.2   0.98403
86 . 1       2.3099 /_   -4.2   0.96175     4.160        1-2     4.0737 /_   27.2   0.97925
   - 2       2.4247 /_ -122.9    1.0095     4.160        2-3     4.1449 /_  -93.1   0.99637
   - 3       2.3726 /_  117.5   0.98785     4.160        3-1     4.0908 /_  146.2   0.98335
78 . 1       2.3154 /_   -4.3   0.96404     4.160        1-2     4.0826 /_   27.3    0.9814
   - 2       2.4326 /_ -122.9    1.0128     4.160        2-3     4.1537 /_  -93.1   0.99849
   - 3       2.3716 /_  117.5   0.98742     4.160        3-1     4.0944 /_  146.2   0.98424
79 . 1       2.3147 /_   -4.3   0.96374     4.160        1-2      4.082 /_   27.3   0.98125
   - 2       2.4329 /_ -122.9     1.013     4.160        2-3     4.1536 /_  -93.1   0.99847
   - 3       2.3715 /_  117.5   0.98737     4.160        3-1     4.0942 /_  146.2   0.98418
80 . 1       2.3199 /_   -4.4    0.9659     4.160        1-2     4.0899 /_   27.2   0.98315
   - 2       2.4366 /_ -122.9    1.0145     4.160        2-3     4.1597 /_  -93.2   0.99992
   - 3       2.3734 /_  117.3   0.98817     4.160        3-1     4.0991 /_  146.1   0.98535
81 . 1       2.3216 /_   -4.4   0.96661     4.160        1-2     4.0928 /_   27.2   0.98383
   - 2       2.4387 /_ -122.9    1.0154     4.160        2-3     4.1623 /_  -93.3    1.0006
   - 3       2.3738 /_  117.3   0.98834     4.160        3-1     4.1007 /_  146.1   0.98576
82 . 1       2.3233 /_   -4.4   0.96733     4.160        1-2     4.0967 /_   27.1   0.98479
   - 2       2.4417 /_ -123.0    1.0166     4.160        2-3     4.1664 /_  -93.3    1.0015
   - 3       2.3755 /_  117.3   0.98907     4.160        3-1      4.104 /_  146.1   0.98654
84 . 3       2.3673 /_  117.3   0.98563     4.160
83 . 1       2.3259 /_   -4.4    0.9684     4.160        1-2     4.1014 /_   27.1   0.98591
   - 2       2.4444 /_ -123.0    1.0177     4.160        2-3     4.1706 /_  -93.3    1.0026
   - 3       2.3774 /_  117.2   0.98986     4.160        3-1     4.1075 /_  146.0   0.98738
85 . 3       2.3642 /_  117.2   0.98436     4.160
87 . 1       2.3084 /_   -4.3   0.96111     4.160        1-2     4.0721 /_   27.2   0.97887
   - 2       2.4228 /_ -123.0    1.0088     4.160        2-3     4.1427 /_  -93.1   0.99585
   - 3       2.3738 /_  117.5   0.98836     4.160        3-1     4.0907 /_  146.2   0.98334
88 . 1       2.3081 /_   -4.3   0.96101     4.160
89 . 1       2.3073 /_   -4.3   0.96067     4.160        1-2     4.0717 /_   27.1   0.97877
   - 2       2.4222 /_ -123.1    1.0085     4.160        2-3     4.1422 /_  -93.1   0.99572
   - 3       2.3747 /_  117.5   0.98872     4.160        3-1     4.0902 /_  146.2   0.98323
90 . 2       2.4219 /_ -123.1    1.0084     4.160
91 . 1       2.3068 /_   -4.3   0.96046     4.160        1-2     4.0709 /_   27.1   0.97859
   - 2       2.4214 /_ -123.1    1.0082     4.160        2-3      4.142 /_  -93.1   0.99566
   - 3       2.3751 /_  117.5    0.9889     4.160        3-1     4.0898 /_  146.1   0.98313
92 . 3       2.3748 /_  117.4   0.98876     4.160
93 . 1        2.306 /_   -4.3   0.96012     4.160        1-2     4.0701 /_   27.1   0.97839
   - 2        2.421 /_ -123.1     1.008     4.160        2-3     4.1413 /_  -93.1   0.99551
   - 3       2.3754 /_  117.5     0.989     4.160        3-1     4.0896 /_  146.1   0.98308
94 . 1       2.3042 /_   -4.3   0.95936     4.160
95 . 1       2.3059 /_   -4.3   0.96008     4.160        1-2     4.0698 /_   27.1   0.97832
   - 2       2.4201 /_ -123.1    1.0076     4.160        2-3     4.1406 /_  -93.1   0.99533
   - 3       2.3758 /_  117.5   0.98919     4.160        3-1     4.0897 /_  146.1   0.98309
96 . 2       2.4195 /_ -123.1    1.0074     4.160
98 . 1       2.3101 /_   -4.1   0.96183     4.160        1-2     4.0738 /_   27.5   0.97928
   - 2       2.4303 /_ -122.6    1.0119     4.160        2-3     4.1482 /_  -92.9   0.99715
   - 3       2.3661 /_  117.7   0.98514     4.160        3-1      4.086 /_  146.4   0.98222
99 . 1       2.3108 /_   -4.1   0.96211     4.160        1-2     4.0732 /_   27.5   0.97913
   - 2       2.4283 /_ -122.6     1.011     4.160        2-3     4.1464 /_  -92.9   0.99673
   - 3       2.3653 /_  117.6   0.98482     4.160        3-1     4.0849 /_  146.4   0.98195
100  1       2.3112 /_   -4.1   0.96231     4.160        1-2     4.0731 /_   27.5   0.97911
   - 2       2.4281 /_ -122.6     1.011     4.160        2-3     4.1461 /_  -92.9   0.99666
   - 3       2.3644 /_  117.6   0.98442     4.160        3-1     4.0842 /_  146.4   0.98177
450  1       2.3112 /_   -4.1   0.96231     4.160        1-2     4.0731 /_   27.5   0.97911
   - 2       2.4281 /_ -122.6     1.011     4.160        2-3     4.1461 /_  -92.9   0.99666
   - 3       2.3644 /_  117.6   0.98442     4.160        3-1     4.0842 /_  146.4   0.98177
197  1       2.3107 /_   -4.1   0.96206     4.160        1-2     4.0749 /_   27.5   0.97954
   - 2       2.4309 /_ -122.6    1.0121     4.160        2-3     4.1491 /_  -92.9   0.99737
   - 3       2.3666 /_  117.7   0.98534     4.160        3-1     4.0869 /_  146.4   0.98243
101  1       2.3086 /_   -4.2    0.9612     4.160        1-2     4.0719 /_   27.5   0.97881
   - 2       2.4303 /_ -122.6    1.0119     4.160        2-3     4.1472 /_  -92.9   0.99693
   - 3       2.3652 /_  117.7   0.98476     4.160        3-1     4.0846 /_  146.4   0.98189
102  3       2.3616 /_  117.7   0.98325     4.160
105  1       2.3052 /_   -4.2   0.95979     4.160        1-2     4.0687 /_   27.5   0.97806
   - 2         2.43 /_ -122.6    1.0117     4.160        2-3     4.1459 /_  -92.9    0.9966
   - 3       2.3659 /_  117.7   0.98504     4.160        3-1     4.0839 /_  146.3    0.9817
103  3       2.3574 /_  117.6   0.98151     4.160
104  3       2.3529 /_  117.6   0.97963     4.160
106  2       2.4271 /_ -122.7    1.0106     4.160
108  1       2.3015 /_   -4.3   0.95823     4.160        1-2     4.0656 /_   27.5    0.9773
   - 2       2.4316 /_ -122.7    1.0124     4.160        2-3     4.1457 /_  -92.9   0.99657
   - 3       2.3655 /_  117.8   0.98489     4.160        3-1     4.0827 /_  146.3   0.98142
107  2       2.4235 /_ -122.7    1.0091     4.160
109  1        2.291 /_   -4.4   0.95387     4.160
300  1       2.3015 /_   -4.3   0.95823     4.160        1-2     4.0656 /_   27.5    0.9773
   - 2       2.4316 /_ -122.7    1.0124     4.160        2-3     4.1457 /_  -92.9   0.99657
   - 3       2.3655 /_  117.8   0.98489     4.160        3-1     4.0827 /_  146.3   0.98142
110  1        2.286 /_   -4.4   0.95179     4.160
111  1       2.2841 /_   -4.4     0.951     4.160
112  1       2.2843 /_   -4.4    0.9511     4.160
113  1       2.2791 /_   -4.5   0.94891     4.160
114  1        2.278 /_   -4.5   0.94846     4.160
135  1        2.357 /_   -2.3   0.98136     4.160        1-2      4.143 /_   28.8    0.9959
   - 2       2.4503 /_ -121.3    1.0202     4.160        2-3     4.1925 /_  -91.6    1.0078
   - 3       2.3976 /_  118.9   0.99825     4.160        3-1     4.1433 /_  148.0   0.99599
152  1       2.3803 /_   -1.9   0.99107     4.160        1-2     4.1739 /_   29.1    1.0033
   - 2       2.4589 /_ -121.1    1.0238     4.160        2-3       4.22 /_  -91.3    1.0144
   - 3       2.4153 /_  119.0    1.0056     4.160        3-1     4.1712 /_  148.3    1.0027
160  1       2.3255 /_   -3.5   0.96825     4.160        1-2     4.0958 /_   28.0   0.98456
   - 2        2.436 /_ -122.2    1.0143     4.160        2-3     4.1673 /_  -92.5    1.0018
   - 3       2.3791 /_  118.0   0.99056     4.160        3-1     4.1044 /_  146.9   0.98663
160R 1       2.3194 /_   -3.8   0.96569     4.160        1-2     4.0873 /_   27.8   0.98253
   - 2        2.434 /_ -122.4    1.0134     4.160        2-3     4.1595 /_  -92.7   0.99988
   - 3       2.3737 /_  117.8   0.98832     4.160        3-1     4.0971 /_  146.7   0.98489
61S  1       2.3234 /_   -3.5   0.96736     4.160        1-2     4.0912 /_   28.0   0.98347
   - 2       2.4336 /_ -122.1    1.0132     4.160        2-3     4.1614 /_  -92.5    1.0003
   - 3       2.3741 /_  118.0   0.98846     4.160        3-1     4.0982 /_  146.9   0.98515
